examples/dssparser/dssfiles/rahul123/Line.txt
New Line.L1     Phases=3     Bus1 =1.1.2.3           Bus2 =2.1.2.3     LineCode =1     Length = 1
New Line.L2     Phases=3     Bus1 =2.1.2.3           Bus2 =3.1.2.3     LineCode =2     Length = 1
New Line.L3     Phases=1     Bus1 =3.2           Bus2 =4.2     LineCode =3     Length = 1
New Line.L4     Phases=1     Bus1 =3.3           Bus2 =5.3     LineCode =4     Length = 1
New Line.L5     Phases=3     Bus1 =3.1.2.3           Bus2 =9.1.2.3     LineCode =5     Length = 1
New Line.L6     Phases=1     Bus1 =5.3           Bus2 =6.3     LineCode =6     Length = 1
New Line.L7     Phases=1     Bus1 =5.3           Bus2 =7.3     LineCode =7     Length = 1
New Line.L8     Phases=1     Bus1 =7.3           Bus2 =8.3     LineCode =8     Length = 1
New Line.L9     Phases=3     Bus1 =9.1.2.3           Bus2 =10.1.2.3     LineCode =9     Length = 1
New Line.L10     Phases=1     Bus1 =10.2           Bus2 =14.2     LineCode =10     Length = 1
New Line.L11     Phases=1     Bus1 =10.1           Bus2 =11.1     LineCode =11     Length = 1
New Line.L12     Phases=3     Bus1 =10.1.2.3           Bus2 =15.1.2.3     LineCode =12     Length = 1
New Line.L13     Phases=1     Bus1 =11.1           Bus2 =16.1     LineCode =13     Length = 1
New Line.L14     Phases=1     Bus1 =15.3           Bus2 =36.3     LineCode =14     Length = 1
New Line.L15     Phases=3     Bus1 =15.1.2.3           Bus2 =20.1.2.3     LineCode =15     Length = 1
New Line.L16     Phases=1     Bus1 =16.1           Bus2 =13.1     LineCode =16     Length = 1
New Line.L17     Phases=1     Bus1 =16.1           Bus2 =12.1     LineCode =17     Length = 1
New Line.L18     Phases=1     Bus1 =17.3           Bus2 =18.3     LineCode =18     Length = 1
New Line.L19     Phases=1     Bus1 =17.3           Bus2 =19.3     LineCode =19     Length = 1
New Line.L20     Phases=1     Bus1 =20.1           Bus2 =21.1     LineCode =20     Length = 1
New Line.L21     Phases=3     Bus1 =20.1.2.3           Bus2 =23.1.2.3     LineCode =21     Length = 1
New Line.L22     Phases=1     Bus1 =21.1           Bus2 =22.1     LineCode =22     Length = 1
New Line.L23     Phases=1     Bus1 =23.2           Bus2 =24.2     LineCode =23     Length = 1
New Line.L24     Phases=3     Bus1 =23.1.2.3           Bus2 =25.1.2.3     LineCode =24     Length = 1
New Line.L25     Phases=1     Bus1 =25.3           Bus2 =26.3     LineCode =25     Length = 1
New Line.L26     Phases=3     Bus1 =25.1.2.3           Bus2 =27.1.2.3     LineCode =26     Length = 1
New Line.L27     Phases=2     Bus1 =27.1.3           Bus2 =28.1.3     LineCode =27     Length = 1
New Line.L28     Phases=3     Bus1 =27.1.2.3           Bus2 =30.1.2.3     LineCode =28     Length = 1
New Line.L29     Phases=1     Bus1 =28.1           Bus2 =29.1     LineCode =29     Length = 1
New Line.L30     Phases=1     Bus1 =28.3           Bus2 =33.3     LineCode =30     Length = 1
New Line.L31     Phases=1     Bus1 =29.1           Bus2 =35.1     LineCode =31     Length = 1
New Line.L32     Phases=3     Bus1 =30.1.2.3           Bus2 =31.1.2.3     LineCode =32     Length = 1
New Line.L33     Phases=3     Bus1 =31.1.2.3           Bus2 =32.1.2.3     LineCode =33     Length = 1
New Line.L34     Phases=3     Bus1 =32.1.2.3           Bus2 =119.1.2.3     LineCode =34     Length = 1
New Line.L35     Phases=1     Bus1 =33.3           Bus2 =34.3     LineCode =35     Length = 1
New Line.L36     Phases=1     Bus1 =36.3           Bus2 =17.3     LineCode =36     Length = 1
New Line.L37     Phases=2     Bus1 =37.1.2           Bus2 =38.1.2     LineCode =37     Length = 1
New Line.L38     Phases=3     Bus1 =37.1.2.3           Bus2 =42.1.2.3     LineCode =38     Length = 1
New Line.L39     Phases=1     Bus1 =38.1           Bus2 =39.1     LineCode =39     Length = 1
New Line.L40     Phases=1     Bus1 =38.2           Bus2 =40.2     LineCode =40     Length = 1
New Line.L41     Phases=1     Bus1 =40.2           Bus2 =41.2     LineCode =41     Length = 1
New Line.L42     Phases=1     Bus1 =42.3           Bus2 =43.3     LineCode =42     Length = 1
New Line.L43     Phases=3     Bus1 =42.1.2.3           Bus2 =44.1.2.3     LineCode =43     Length = 1
New Line.L44     Phases=1     Bus1 =44.2           Bus2 =45.2     LineCode =44     Length = 1
New Line.L45     Phases=3     Bus1 =44.1.2.3           Bus2 =46.1.2.3     LineCode =45     Length = 1
New Line.L46     Phases=1     Bus1 =46.1           Bus2 =47.1     LineCode =46     Length = 1
New Line.L47     Phases=3     Bus1 =46.1.2.3           Bus2 =49.1.2.3     LineCode =47     Length = 1
New Line.L48     Phases=1     Bus1 =47.1           Bus2 =48.1     LineCode =48     Length = 1
New Line.L49     Phases=3     Bus1 =49.1.2.3           Bus2 =50.1.2.3     LineCode =49     Length = 1
New Line.L50     Phases=3     Bus1 =49.1.2.3           Bus2 =51.1.2.3     LineCode =50     Length = 1
New Line.L51     Phases=3     Bus1 =51.1.2.3           Bus2 =52.1.2.3     LineCode =51     Length = 1
New Line.L52     Phases=3     Bus1 =52.1.2.3           Bus2 =53.1.2.3     LineCode =52     Length = 1
New Line.L53     Phases=3     Bus1 =54.1.2.3           Bus2 =55.1.2.3     LineCode =53     Length = 1
New Line.L54     Phases=3     Bus1 =55.1.2.3           Bus2 =56.1.2.3     LineCode =54     Length = 1
New Line.L55     Phases=3     Bus1 =56.1.2.3           Bus2 =57.1.2.3     LineCode =55     Length = 1
New Line.L56     Phases=3     Bus1 =56.1.2.3           Bus2 =59.1.2.3     LineCode =56     Length = 1
New Line.L57     Phases=3     Bus1 =57.1.2.3           Bus2 =58.1.2.3     LineCode =57     Length = 1
New Line.L58     Phases=1     Bus1 =59.2           Bus2 =60.2     LineCode =58     Length = 1
New Line.L59     Phases=3     Bus1 =59.1.2.3           Bus2 =62.1.2.3     LineCode =59     Length = 1
New Line.L60     Phases=1     Bus1 =60.2           Bus2 =61.2     LineCode =60     Length = 1
New Line.L61     Phases=3     Bus1 =62.1.2.3           Bus2 =63.1.2.3     LineCode =61     Length = 1
New Line.L62     Phases=3     Bus1 =62.1.2.3           Bus2 =64.1.2.3     LineCode =62     Length = 1
New Line.L63     Phases=3     Bus1 =64.1.2.3           Bus2 =65.1.2.3     LineCode =63     Length = 1
New Line.L64     Phases=3     Bus1 =65.1.2.3           Bus2 =66.1.2.3     LineCode =64     Length = 1
New Line.L65     Phases=3     Bus1 =66.1.2.3           Bus2 =67.1.2.3     LineCode =65     Length = 1
New Line.L66     Phases=3     Bus1 =67.1.2.3           Bus2 =68.1.2.3     LineCode =66     Length = 1
New Line.L67     Phases=1     Bus1 =69.1           Bus2 =70.1     LineCode =67     Length = 1
New Line.L68     Phases=3     Bus1 =69.1.2.3           Bus2 =74.1.2.3     LineCode =68     Length = 1
New Line.L69     Phases=3     Bus1 =69.1.2.3           Bus2 =99.1.2.3     LineCode =69     Length = 1
New Line.L70     Phases=1     Bus1 =70.1           Bus2 =71.1     LineCode =70     Length = 1
New Line.L71     Phases=1     Bus1 =71.1           Bus2 =72.1     LineCode =71     Length = 1
New Line.L72     Phases=1     Bus1 =72.1           Bus2 =73.1     LineCode =72     Length = 1
New Line.L73     Phases=1     Bus1 =74.3           Bus2 =75.3     LineCode =73     Length = 1
New Line.L74     Phases=3     Bus1 =74.1.2.3           Bus2 =78.1.2.3     LineCode =74     Length = 1
New Line.L75     Phases=1     Bus1 =75.3           Bus2 =76.3     LineCode =75     Length = 1
New Line.L76     Phases=1     Bus1 =76.3           Bus2 =77.3     LineCode =76     Length = 1
New Line.L77     Phases=3     Bus1 =78.1.2.3           Bus2 =79.1.2.3     LineCode =77     Length = 1
New Line.L78     Phases=3     Bus1 =78.1.2.3           Bus2 =88.1.2.3     LineCode =78     Length = 1
New Line.L79     Phases=3     Bus1 =79.1.2.3           Bus2 =80.1.2.3     LineCode =79     Length = 1
New Line.L80     Phases=3     Bus1 =80.1.2.3           Bus2 =81.1.2.3     LineCode =80     Length = 1
New Line.L81     Phases=3     Bus1 =80.1.2.3           Bus2 =82.1.2.3     LineCode =81     Length = 1
New Line.L82     Phases=3     Bus1 =82.1.2.3           Bus2 =83.1.2.3     LineCode =82     Length = 1
New Line.L83     Phases=3     Bus1 =83.1.2.3           Bus2 =84.1.2.3     LineCode =83     Length = 1
New Line.L84     Phases=1     Bus1 =83.3           Bus2 =86.3     LineCode =84     Length = 1
New Line.L85     Phases=3     Bus1 =84.1.2.3           Bus2 =85.1.2.3     LineCode =85     Length = 1
New Line.L86     Phases=1     Bus1 =86.3           Bus2 =87.3     LineCode =86     Length = 1
New Line.L87     Phases=3     Bus1 =88.1.2.3           Bus2 =89.1.2.3     LineCode =87     Length = 1
New Line.L88     Phases=1     Bus1 =89.1           Bus2 =90.1     LineCode =88     Length = 1
New Line.L89     Phases=3     Bus1 =89.1.2.3           Bus2 =91.1.2.3     LineCode =89     Length = 1
New Line.L90     Phases=1     Bus1 =91.2           Bus2 =92.2     LineCode =90     Length = 1
New Line.L91     Phases=3     Bus1 =91.1.2.3           Bus2 =93.1.2.3     LineCode =91     Length = 1
New Line.L92     Phases=1     Bus1 =93.3           Bus2 =94.3     LineCode =92     Length = 1
New Line.L93     Phases=3     Bus1 =93.1.2.3           Bus2 =95.1.2.3     LineCode =93     Length = 1
New Line.L94     Phases=1     Bus1 =95.1           Bus2 =96.1     LineCode =94     Length = 1
New Line.L95     Phases=3     Bus1 =95.1.2.3           Bus2 =97.1.2.3     LineCode =95     Length = 1
New Line.L96     Phases=1     Bus1 =97.2           Bus2 =98.2     LineCode =96     Length = 1
New Line.L97     Phases=3     Bus1 =99.1.2.3           Bus2 =100.1.2.3     LineCode =97     Length = 1
New Line.L98     Phases=3     Bus1 =100.1.2.3           Bus2 =101.1.2.3     LineCode =98     Length = 1
New Line.L99     Phases=3     Bus1 =101.1.2.3           Bus2 =102.1.2.3     LineCode =99     Length = 1
New Line.L100     Phases=3     Bus1 =102.1.2.3           Bus2 =123.1.2.3     LineCode =100     Length = 1
New Line.L101     Phases=1     Bus1 =103.3           Bus2 =104.3     LineCode =101     Length = 1
New Line.L102     Phases=3     Bus1 =103.1.2.3           Bus2 =107.1.2.3     LineCode =102     Length = 1
New Line.L103     Phases=1     Bus1 =104.3           Bus2 =105.3     LineCode =103     Length = 1
New Line.L104     Phases=1     Bus1 =105.3           Bus2 =106.3     LineCode =104     Length = 1
New Line.L105     Phases=1     Bus1 =107.2           Bus2 =108.2     LineCode =105     Length = 1
New Line.L106     Phases=3     Bus1 =107.1.2.3           Bus2 =110.1.2.3     LineCode =106     Length = 1
New Line.L107     Phases=1     Bus1 =108.2           Bus2 =109.2     LineCode =107     Length = 1
New Line.L108     Phases=1     Bus1 =110.1           Bus2 =111.1     LineCode =108     Length = 1
New Line.L109     Phases=3     Bus1 =110.1.2.3           Bus2 =121.1.2.3     LineCode =109     Length = 1
New Line.L110     Phases=1     Bus1 =111.1           Bus2 =112.1     LineCode =110     Length = 1
New Line.L111     Phases=1     Bus1 =112.1           Bus2 =113.1     LineCode =111     Length = 1
New Line.L112     Phases=1     Bus1 =112.1           Bus2 =114.1     LineCode =112     Length = 1
New Line.L113     Phases=1     Bus1 =114.1           Bus2 =115.1     LineCode =113     Length = 1
New Line.L114     Phases=1     Bus1 =115.1           Bus2 =116.1     LineCode =114     Length = 1
New Line.L115     Phases=3     Bus1 =118.1.2.3           Bus2 =37.1.2.3     LineCode =115     Length = 1
New Line.L116     Phases=3     Bus1 =117.1.2.3           Bus2 =54.1.2.3     LineCode =116     Length = 1
New Line.L117     Phases=3     Bus1 =53.1.2.3           Bus2 =120.1.2.3     LineCode =117     Length = 1
New Line.L118     Phases=3     Bus1 =125.1.2.3           Bus2 =69.1.2.3     LineCode =118     Length = 1
New Line.L119     Phases=3     Bus1 =124.1.2.3           Bus2 =103.1.2.3     LineCode =119     Length = 1
New Line.L120     Phases=3     Bus1 =15.1.2.3           Bus2 =117.1.2.3     LineCode =120     Length = 1
New Line.L121     Phases=3     Bus1 =20.1.2.3           Bus2 =118.1.2.3     LineCode =121     Length = 1
New Line.L122     Phases=3     Bus1 =62.1.2.3           Bus2 =125.1.2.3     LineCode =122     Length = 1
New Line.L123     Phases=3     Bus1 =99.1.2.3           Bus2 =124.1.2.3     LineCode =123     Length = 1
New Line.L124     Phases=3     Bus1 =63.1.2.3           Bus2 =122.1.2.3     LineCode =124     Length = 1
