examples/dssparser/dssfiles/rahul123/Load.txt
New load.S3a    Bus=3.1   Phases=1   Conn=Wye  Model=1   kv=4.16   kw=40  kvar=20       Vminpu=0.2  Vmaxpu=1.1
New load.S4b    Bus=4.2   Phases=1   Conn=Wye  Model=1   kv=4.16   kw=20  kvar=10       Vminpu=0.2  Vmaxpu=1.1
New load.S6c    Bus=6.3   Phases=1   Conn=Wye  Model=1   kv=4.16   kw=40  kvar=20       Vminpu=0.2  Vmaxpu=1.1
New load.S7c    Bus=7.3   Phases=1   Conn=Wye  Model=1   kv=4.16   kw=20  kvar=10       Vminpu=0.2  Vmaxpu=1.1
New load.S8c    Bus=8.3   Phases=1   Conn=Wye  Model=1   kv=4.16   kw=40  kvar=20       Vminpu=0.2  Vmaxpu=1.1
New load.S9a    Bus=9.1   Phases=1   Conn=Wye  Model=1   kv=4.16   kw=20  kvar=10       Vminpu=0.2  Vmaxpu=1.1
New load.S11a    Bus=11.1   Phases=1   Conn=Wye  Model=1   kv=4.16   kw=40  kvar=20       Vminpu=0.2  Vmaxpu=1.1
New load.S12a    Bus=12.1   Phases=1   Conn=Wye  Model=1   kv=4.16   kw=20  kvar=10       Vminpu=0.2  Vmaxpu=1.1
New load.S13a    Bus=13.1   Phases=1   Conn=Wye  Model=1   kv=4.16   kw=40  kvar=20       Vminpu=0.2  Vmaxpu=1.1
New load.S14b    Bus=14.2   Phases=1   Conn=Wye  Model=1   kv=4.16   kw=20  kvar=10       Vminpu=0.2  Vmaxpu=1.1
New load.S18c    Bus=18.3   Phases=1   Conn=Wye  Model=1   kv=4.16   kw=40  kvar=20       Vminpu=0.2  Vmaxpu=1.1
New load.S19c    Bus=19.3   Phases=1   Conn=Wye  Model=1   kv=4.16   kw=20  kvar=10       Vminpu=0.2  Vmaxpu=1.1
New load.S21a    Bus=21.1   Phases=1   Conn=Wye  Model=1   kv=4.16   kw=40  kvar=20       Vminpu=0.2  Vmaxpu=1.1
New load.S22a    Bus=22.1   Phases=1   Conn=Wye  Model=1   kv=4.16   kw=40  kvar=20       Vminpu=0.2  Vmaxpu=1.1
New load.S24b    Bus=24.2   Phases=1   Conn=Wye  Model=1   kv=4.16   kw=40  kvar=20       Vminpu=0.2  Vmaxpu=1.1
New load.S26c    Bus=26.3   Phases=1   Conn=Wye  Model=1   kv=4.16   kw=40  kvar=20       Vminpu=0.2  Vmaxpu=1.1
New load.S30a    Bus=30.1   Phases=1   Conn=Wye  Model=1   kv=4.16   kw=40  kvar=20       Vminpu=0.2  Vmaxpu=1.1
New load.S31a    Bus=31.1   Phases=1   Conn=Wye  Model=1   kv=4.16   kw=40  kvar=20       Vminpu=0.2  Vmaxpu=1.1
New load.S32c    Bus=32.3   Phases=1   Conn=Wye  Model=1   kv=4.16   kw=40  kvar=20       Vminpu=0.2  Vmaxpu=1.1
New load.S33c    Bus=33.3   Phases=1   Conn=Wye  Model=1   kv=4.16   kw=20  kvar=10       Vminpu=0.2  Vmaxpu=1.1
New load.S34c    Bus=34.3   Phases=1   Conn=Wye  Model=1   kv=4.16   kw=20  kvar=10       Vminpu=0.2  Vmaxpu=1.1
New load.S35a    Bus=35.1   Phases=1   Conn=Wye  Model=1   kv=4.16   kw=40  kvar=20       Vminpu=0.2  Vmaxpu=1.1
New load.S36c    Bus=36.3   Phases=1   Conn=Wye  Model=1   kv=4.16   kw=40  kvar=20       Vminpu=0.2  Vmaxpu=1.1
New load.S37a    Bus=37.1   Phases=1   Conn=Wye  Model=1   kv=4.16   kw=40  kvar=20       Vminpu=0.2  Vmaxpu=1.1
New load.S39a    Bus=39.1   Phases=1   Conn=Wye  Model=1   kv=4.16   kw=40  kvar=20       Vminpu=0.2  Vmaxpu=1.1
New load.S40b    Bus=40.2   Phases=1   Conn=Wye  Model=1   kv=4.16   kw=40  kvar=20       Vminpu=0.2  Vmaxpu=1.1
New load.S41b    Bus=41.2   Phases=1   Conn=Wye  Model=1   kv=4.16   kw=20  kvar=10       Vminpu=0.2  Vmaxpu=1.1
New load.S43c    Bus=43.3   Phases=1   Conn=Wye  Model=1   kv=4.16   kw=20  kvar=10       Vminpu=0.2  Vmaxpu=1.1
New load.S44a    Bus=44.1   Phases=1   Conn=Wye  Model=1   kv=4.16   kw=20  kvar=10       Vminpu=0.2  Vmaxpu=1.1
New load.S45b    Bus=45.2   Phases=1   Conn=Wye  Model=1   kv=4.16   kw=40  kvar=20       Vminpu=0.2  Vmaxpu=1.1
New load.S47a    Bus=47.1   Phases=1   Conn=Wye  Model=1   kv=4.16   kw=20  kvar=10       Vminpu=0.2  Vmaxpu=1.1
New load.S48a    Bus=48.1   Phases=1   Conn=Wye  Model=1   kv=4.16   kw=20  kvar=10       Vminpu=0.2  Vmaxpu=1.1
New load.S49a    Bus=49.1   Phases=1   Conn=Wye  Model=1   kv=4.16   kw=35  kvar=25       Vminpu=0.2  Vmaxpu=1.1
New load.S49b    Bus=49.2   Phases=1   Conn=Wye  Model=1   kv=4.16   kw=35  kvar=25       Vminpu=0.2  Vmaxpu=1.1
New load.S49c    Bus=49.3   Phases=1   Conn=Wye  Model=1   kv=4.16   kw=35  kvar=25       Vminpu=0.2  Vmaxpu=1.1
New load.S50a    Bus=50.1   Phases=1   Conn=Wye  Model=1   kv=4.16   kw=70  kvar=50       Vminpu=0.2  Vmaxpu=1.1
New load.S50b    Bus=50.2   Phases=1   Conn=Wye  Model=1   kv=4.16   kw=70  kvar=50       Vminpu=0.2  Vmaxpu=1.1
New load.S50c    Bus=50.3   Phases=1   Conn=Wye  Model=1   kv=4.16   kw=70  kvar=50       Vminpu=0.2  Vmaxpu=1.1
New load.S51a    Bus=51.1   Phases=1   Conn=Wye  Model=1   kv=4.16   kw=35  kvar=25       Vminpu=0.2  Vmaxpu=1.1
New load.S51b    Bus=51.2   Phases=1   Conn=Wye  Model=1   kv=4.16   kw=70  kvar=50       Vminpu=0.2  Vmaxpu=1.1
New load.S51c    Bus=51.3   Phases=1   Conn=Wye  Model=1   kv=4.16   kw=35  kvar=20       Vminpu=0.2  Vmaxpu=1.1
New load.S52c    Bus=52.3   Phases=1   Conn=Wye  Model=1   kv=4.16   kw=40  kvar=20       Vminpu=0.2  Vmaxpu=1.1
New load.S53a    Bus=53.1   Phases=1   Conn=Wye  Model=1   kv=4.16   kw=20  kvar=10       Vminpu=0.2  Vmaxpu=1.1
New load.S54a    Bus=54.1   Phases=1   Conn=Wye  Model=1   kv=4.16   kw=40  kvar=20       Vminpu=0.2  Vmaxpu=1.1
New load.S55a    Bus=55.1   Phases=1   Conn=Wye  Model=1   kv=4.16   kw=40  kvar=20       Vminpu=0.2  Vmaxpu=1.1
New load.S57a    Bus=57.1   Phases=1   Conn=Wye  Model=1   kv=4.16   kw=20  kvar=10       Vminpu=0.2  Vmaxpu=1.1
New load.S58b    Bus=58.2   Phases=1   Conn=Wye  Model=1   kv=4.16   kw=20  kvar=10       Vminpu=0.2  Vmaxpu=1.1
New load.S60b    Bus=60.2   Phases=1   Conn=Wye  Model=1   kv=4.16   kw=40  kvar=20       Vminpu=0.2  Vmaxpu=1.1
New load.S61b    Bus=61.2   Phases=1   Conn=Wye  Model=1   kv=4.16   kw=20  kvar=10       Vminpu=0.2  Vmaxpu=1.1
New load.S62a    Bus=62.1   Phases=1   Conn=Wye  Model=1   kv=4.16   kw=20  kvar=10       Vminpu=0.2  Vmaxpu=1.1
New load.S64c    Bus=64.3   Phases=1   Conn=Wye  Model=1   kv=4.16   kw=40  kvar=20       Vminpu=0.2  Vmaxpu=1.1
New load.S65a    Bus=65.1   Phases=1   Conn=Wye  Model=1   kv=4.16   kw=40  kvar=20       Vminpu=0.2  Vmaxpu=1.1
New load.S66b    Bus=66.2   Phases=1   Conn=Wye  Model=1   kv=4.16   kw=75  kvar=35       Vminpu=0.2  Vmaxpu=1.1
New load.S67a    Bus=67.1   Phases=1   Conn=Wye  Model=1   kv=4.16   kw=35  kvar=25       Vminpu=0.2  Vmaxpu=1.1
New load.S67b    Bus=67.2   Phases=1   Conn=Wye  Model=1   kv=4.16   kw=35  kvar=25       Vminpu=0.2  Vmaxpu=1.1
New load.S67c    Bus=67.3   Phases=1   Conn=Wye  Model=1   kv=4.16   kw=70  kvar=50       Vminpu=0.2  Vmaxpu=1.1
New load.S68c    Bus=68.3   Phases=1   Conn=Wye  Model=1   kv=4.16   kw=75  kvar=35       Vminpu=0.2  Vmaxpu=1.1
New load.S70a    Bus=70.1   Phases=1   Conn=Wye  Model=1   kv=4.16   kw=20  kvar=10       Vminpu=0.2  Vmaxpu=1.1
New load.S71a    Bus=71.1   Phases=1   Conn=Wye  Model=1   kv=4.16   kw=40  kvar=20       Vminpu=0.2  Vmaxpu=1.1
New load.S72a    Bus=72.1   Phases=1   Conn=Wye  Model=1   kv=4.16   kw=20  kvar=10       Vminpu=0.2  Vmaxpu=1.1
New load.S73a    Bus=73.1   Phases=1   Conn=Wye  Model=1   kv=4.16   kw=40  kvar=20       Vminpu=0.2  Vmaxpu=1.1
New load.S75c    Bus=75.3   Phases=1   Conn=Wye  Model=1   kv=4.16   kw=40  kvar=20       Vminpu=0.2  Vmaxpu=1.1
New load.S76c    Bus=76.3   Phases=1   Conn=Wye  Model=1   kv=4.16   kw=40  kvar=20       Vminpu=0.2  Vmaxpu=1.1
New load.S77c    Bus=77.3   Phases=1   Conn=Wye  Model=1   kv=4.16   kw=40  kvar=20       Vminpu=0.2  Vmaxpu=1.1
New load.S78a    Bus=78.1   Phases=1   Conn=Wye  Model=1   kv=4.16   kw=105  kvar=80       Vminpu=0.2  Vmaxpu=1.1
New load.S78b    Bus=78.2   Phases=1   Conn=Wye  Model=1   kv=4.16   kw=70  kvar=50       Vminpu=0.2  Vmaxpu=1.1
New load.S78c    Bus=78.3   Phases=1   Conn=Wye  Model=1   kv=4.16   kw=70  kvar=50       Vminpu=0.2  Vmaxpu=1.1
New load.S79b    Bus=79.2   Phases=1   Conn=Wye  Model=1   kv=4.16   kw=40  kvar=20       Vminpu=0.2  Vmaxpu=1.1
New load.S81a    Bus=81.1   Phases=1   Conn=Wye  Model=1   kv=4.16   kw=40  kvar=20       Vminpu=0.2  Vmaxpu=1.1
New load.S82b    Bus=82.2   Phases=1   Conn=Wye  Model=1   kv=4.16   kw=40  kvar=20       Vminpu=0.2  Vmaxpu=1.1
New load.S84a    Bus=84.1   Phases=1   Conn=Wye  Model=1   kv=4.16   kw=40  kvar=20       Vminpu=0.2  Vmaxpu=1.1
New load.S85c    Bus=85.3   Phases=1   Conn=Wye  Model=1   kv=4.16   kw=20  kvar=10       Vminpu=0.2  Vmaxpu=1.1
New load.S86c    Bus=86.3   Phases=1   Conn=Wye  Model=1   kv=4.16   kw=20  kvar=10       Vminpu=0.2  Vmaxpu=1.1
New load.S87c    Bus=87.3   Phases=1   Conn=Wye  Model=1   kv=4.16   kw=40  kvar=20       Vminpu=0.2  Vmaxpu=1.1
New load.S88b    Bus=88.2   Phases=1   Conn=Wye  Model=1   kv=4.16   kw=20  kvar=10       Vminpu=0.2  Vmaxpu=1.1
New load.S89b    Bus=89.2   Phases=1   Conn=Wye  Model=1   kv=4.16   kw=40  kvar=20       Vminpu=0.2  Vmaxpu=1.1
New load.S90a    Bus=90.1   Phases=1   Conn=Wye  Model=1   kv=4.16   kw=40  kvar=20       Vminpu=0.2  Vmaxpu=1.1
New load.S92b    Bus=92.2   Phases=1   Conn=Wye  Model=1   kv=4.16   kw=40  kvar=20       Vminpu=0.2  Vmaxpu=1.1
New load.S94c    Bus=94.3   Phases=1   Conn=Wye  Model=1   kv=4.16   kw=40  kvar=20       Vminpu=0.2  Vmaxpu=1.1
New load.S96a    Bus=96.1   Phases=1   Conn=Wye  Model=1   kv=4.16   kw=40  kvar=20       Vminpu=0.2  Vmaxpu=1.1
New load.S97b    Bus=97.2   Phases=1   Conn=Wye  Model=1   kv=4.16   kw=20  kvar=10       Vminpu=0.2  Vmaxpu=1.1
New load.S98b    Bus=98.2   Phases=1   Conn=Wye  Model=1   kv=4.16   kw=20  kvar=10       Vminpu=0.2  Vmaxpu=1.1
New load.S100a    Bus=100.1   Phases=1   Conn=Wye  Model=1   kv=4.16   kw=40  kvar=20       Vminpu=0.2  Vmaxpu=1.1
New load.S101b    Bus=101.2   Phases=1   Conn=Wye  Model=1   kv=4.16   kw=40  kvar=20       Vminpu=0.2  Vmaxpu=1.1
New load.S102c    Bus=102.3   Phases=1   Conn=Wye  Model=1   kv=4.16   kw=40  kvar=20       Vminpu=0.2  Vmaxpu=1.1
New load.S104c    Bus=104.3   Phases=1   Conn=Wye  Model=1   kv=4.16   kw=20  kvar=10       Vminpu=0.2  Vmaxpu=1.1
New load.S105c    Bus=105.3   Phases=1   Conn=Wye  Model=1   kv=4.16   kw=40  kvar=20       Vminpu=0.2  Vmaxpu=1.1
New load.S106c    Bus=106.3   Phases=1   Conn=Wye  Model=1   kv=4.16   kw=40  kvar=20       Vminpu=0.2  Vmaxpu=1.1
New load.S108b    Bus=108.2   Phases=1   Conn=Wye  Model=1   kv=4.16   kw=80  kvar=40       Vminpu=0.2  Vmaxpu=1.1
New load.S109b    Bus=109.2   Phases=1   Conn=Wye  Model=1   kv=4.16   kw=40  kvar=20       Vminpu=0.2  Vmaxpu=1.1
New load.S111a    Bus=111.1   Phases=1   Conn=Wye  Model=1   kv=4.16   kw=40  kvar=20       Vminpu=0.2  Vmaxpu=1.1
New load.S113a    Bus=113.1   Phases=1   Conn=Wye  Model=1   kv=4.16   kw=20  kvar=10       Vminpu=0.2  Vmaxpu=1.1
New load.S114a    Bus=114.1   Phases=1   Conn=Wye  Model=1   kv=4.16   kw=20  kvar=10       Vminpu=0.2  Vmaxpu=1.1
New load.S115a    Bus=115.1   Phases=1   Conn=Wye  Model=1   kv=4.16   kw=40  kvar=20       Vminpu=0.2  Vmaxpu=1.1
New load.S116a    Bus=116.1   Phases=1   Conn=Wye  Model=1   kv=4.16   kw=20  kvar=10       Vminpu=0.2  Vmaxpu=1.1
